    19
 Generated by Multiwfn
Fe      6.20451000      0.95186400      0.36074500
O       8.22309100      0.96632200      0.35973500
O       6.30794900     -1.06297800      0.30119200
O       6.29618800      1.05061900     -1.65319200
O       4.18555300      0.93841900      0.36118700
O       6.10060800      2.96719900      0.41984000
O       6.11279300      0.85057500      2.37470600
H       3.66136100      1.74858900      0.25313700
H       3.60089300      0.18421400      0.18527200
H       6.26476400      3.54078400     -0.34593000
H       6.15848000      3.51736100      1.21725800
H       6.84231600      0.86337700      3.01390000
H       5.27963100      0.88863000      2.87130700
H       8.80676900      1.72066500      0.53837000
H       8.74669600      0.15632000      0.47213700
H       6.25128900     -1.61241700     -0.49681500
H       6.14199200     -1.63691100      1.06631100
H       7.12948000      1.01643600     -2.14984700
H       5.56664300      1.04327900     -2.29243600
