19
Coordinates from ORCA-job /scratch/FeH2O62+-Opt_742/FeH2O62+-Opt
  Fe  6.20431244493934      0.95271051943943      0.36075025224834
  O   8.22326880020805      0.96449342134375      0.38663765882960
  O   6.32252362980008     -1.06162084742797      0.29587551026347
  O   6.30012877595184      1.11433082373845     -1.64912396263166
  O   4.18529977412082      0.93947266087264      0.33679875874925
  O   6.08647064505333      2.96729981722378      0.42622701101319
  O   6.10859955351495      0.79013865068857      2.37087113065773
  H   3.66212870705665      1.75208061180227      0.24374775410390
  H   3.58822659968680      0.18634072660266      0.20420565967136
  H   6.24652326634814      3.51697563628457     -0.35815303367672
  H   6.17343523334486      3.53698074839884      1.20699917920662
  H   6.84361129901444      0.87566369339844      2.99876643562850
  H   5.28202470461872      0.89525070745052      2.86926799843455
  H   8.82113203385016      1.71732915642567      0.51694986652049
  H   8.74515690888743      0.15085164279679      0.47711259866995
  H   6.23362334735336     -1.63073749551518     -0.48513110412125
  H   6.16351088522458     -1.61234944806435      1.07976835085794
  H   7.12627419374088      1.00847713126724     -2.14809477832174
  H   5.56475807728518      1.02866076327384     -2.27659655610354
