19
Coordinates from ORCA-job /scratch/FeH2O62+-Opt_973/FeH2O62+-Opt
  Fe  6.20396967185942      0.95233714381015      0.36144107751708
  O   8.28516824936741      0.95952486352699      0.45431002519482
  O   6.21328338101969     -1.13040007568018      0.29812826400637
  O   6.29875841410049      1.01240963200294     -1.71900894587196
  O   4.12296606901512      0.94591481963798      0.26714009603133
  O   6.19487410915789      3.03520292681984      0.42172470366197
  O   6.10985345739522      0.88929679150144      2.44034619418203
  H   3.55803240802482      1.71125523594264      0.26824437996689
  H   3.56420039681032      0.17763965664864      0.21776085348694
  H   6.22733913367785      3.61906122848410     -0.32858366211148
  H   6.15825164553544      3.57591724872599      1.20350435805174
  H   6.85028075846959      0.87690001736006      3.03742683991656
  H   5.31752956117904      0.87085030461668      2.96644880214492
  H   8.84413041523670      1.72742444842977      0.50703646210469
  H   8.84950335364793      0.19376393337178      0.45993301757085
  H   6.25270486471558     -1.66863333472404     -0.48522019042433
  H   6.18010599330811     -1.71629608071917      1.04680576349101
  H   7.09153628195639      1.03389638061541     -2.24428694579711
  H   5.55852071552273      1.02628377962893     -2.31627236312234
