19
Coordinates from ORCA-job /scratch/opt-UHF_543/opt-UHF
  Fe  -0.64229052468548      0.51818469875648      0.11510131498963
  O   0.38013746619223      2.18458398934747     -0.88077070996367
  H   0.78118860720474      2.93797641659733     -0.45966249204087
  O   -1.27064553123315     -0.20358161387644     -1.85933917263646
  H   -2.01897655972061      0.09803983918414     -2.36422242257798
  O   -0.01403633801695      1.23996033960578      2.08956897516709
  H   0.73424998993843      0.93837495861410      2.59454014330131
  O   -1.66479655363712     -1.14821491697942      1.11095717354663
  H   -2.06582430254822     -1.90160595978193      0.68982478262276
  O   -2.51150308197132      1.66147120807518      0.23072332160147
  H   -2.62944537544502      2.58058225722391      0.01370556450111
  O   1.22688265826327     -0.62509655733731     -0.00052757350221
  H   1.34480646610302     -1.54421053916046      0.21648880339614
  H   -3.36363986863935      1.33391656749948      0.49989286575170
  H   -0.84276276576639     -0.87449872906695     -2.38141132383235
  H   2.07903162695263     -0.29755305810365     -0.26967297614047
  H   0.51612043746439      2.29157319493462     -1.81669028982543
  H   -0.44198928173448      1.91088581818825      2.61157277114371
  H   -1.80079706872063     -1.25522791372052      2.04687124449787
